!-Generator IDFPlus v0.0.1
!-Option
!-NOTE: All comments with '!-' are ignored by the IDFEditor and are generated automatically.
!-      Use '!' comments if they need to be retained when using the IDFEditor.
! 5ZoneBoilerOutsideAirReset.idf
! Basic file description:  1 story building divided into 4 exterior and one interior conditioned zones and return plenum.
!
! Highlights:              This input illustrates the outside air temperature reset for the hot water loop which the boiler serves.
!
! Simulation Location/Run: CHICAGO_IL_USA TMY2-94846, 2 design days, 2 run periods,
!                          Run Control executes the run periods using the weather file
!
! Location:                Chicago, IL
!
! Design Days:             CHICAGO_IL_USA Annual Heating 99% Design Conditions DB, MaxDB= -17.3°C
!                          CHICAGO_IL_USA Annual Cooling 1% Design Conditions, MaxDB=  31.5°C MCWB=  23.0°C
!
! Run Period (Weather File): Winter 1/14, Summer 7/7, CHICAGO_IL_USA TMY2-94846
!
! Run Control:             Zone and System sizing with weather file run control (no design days run)
!
! Building: Single floor rectangular building 100 ft x 50 ft. 5 zones - 4 exterior, 1 interior, zone height 8 feet.
!           Exterior zone depth is 12 feet. There is a 2 foot high return plenum: the overall building height is
!           10 feet. There are windows on all 4 facades; the south and north facades have glass doors.
!           The south facing glass is shaded by overhangs. The walls are woodshingle over plywood, R11 insulation,
!           and gypboard. The roof is a gravel built up roof with R-3 mineral board insulation and plywood sheathing.
!           The windows are of various single and double pane construction with 3mm and 6mm glass and either 6mm or
!           13mm argon or air gap.  The window to wall ratio is approxomately 0.29.
!           The south wall and door have overhangs.
!
!           The building is oriented 30 degrees east of north.
!
! Floor Area:        463.6 m2 (5000 ft2)
! Number of Stories: 1
!
! Zone Description Details:
!
!      (0,15.2,0)                      (30.5,15.2,0)
!           _____   ________                ____
!         |\     ***        ****************   /|
!         | \                                 / |
!         |  \                 (26.8,11.6,0) /  |
!         *   \_____________________________/   *
!         *    |(3.7,11.6,0)               |    *
!         *    |                           |    *
!         *    |                           |    *
!         *    |               (26.8,3.7,0)|    *
!         *    |___________________________|    *
!         *   / (3.7,3.7,0)                 \   *
!         |  /                               \  |
!         | /                                 \ |
!         |/___******************___***________\|
!          |       Overhang        |   |
!          |_______________________|   |   window/door = *
!                                  |___|
!
!      (0,0,0)                            (30.5,0,0)
!
! Internal gains description:     lighting is 1.5 watts/ft2, office equip is 1.0 watts/ft2. There is 1 occupant
!                                 per 100 ft2 of floor area. The infiltration is 0.25 air changes per hour.
!
! Interzone Surfaces:             6 interzone surfaces (see diagram)
! Internal Mass:                  None
! People:                         50
! Lights:                         7500 W
! Windows:                        4 ea.: 1) Double pane clear, 3mm glass, 13mm air gap
!                                        2) Double pane clear, 3mm glass, 13mm argon gap
!                                        3) Double pane clear, 6mm glass, 6mm air gap
!                                        4) Double pane lowE,  6mm lowE glass outside, 6mm air gap, 6mm clear glass
!
! Doors:                          2 ea.:    Single pane grey,  3mm glass
!
! Detached Shading:               None
! Daylight:                       None
! Natural Ventilation:            None
! Compact Schedules:              Yes
!
! HVAC:                           Standard VAV system with outside air economizer, hot water reheat coils,
!                                 central chilled water cooling coil. Central Plant is single hot water
!                                 boiler, electric compression chiller with condenser loop and a cooling tower.
!                                 All equipment is autosized.
!
! Zonal Equipment:                AirTerminal:SingleDuct:VAV:Reheat
! Central Air Handling Equipment: Yes
! System Equipment Autosize:      Yes
! Purchased Cooling:              None
! Purchased Heating:              None
! Coils:                          Coil:Cooling:Water:DetailedGeometry, Coil:Heating:Water
! Pumps:                          Pump:VariableSpeed
! Boilers:                        Boiler:HotWater
! Chillers:                       Chiller:Electric
!
! Results:
! Standard Reports:               None
! Timestep or Hourly Variables:   Hourly
! Time bins Report:               None
! HTML Report:                    None
! Environmental Emissions:        None
! Utility Tariffs:                None
  Version,
    8.1;                     !- Version Identifier

  SimulationControl,
    Yes,                     !- Do Zone Sizing Calculation
    Yes,                     !- Do System Sizing Calculation
    No,                      !- Do Plant Sizing Calculation
    No,                      !- Run Simulation for Sizing Periods
    Yes;                     !- Run Simulation for Weather File Run Periods

  Building,
    Building,                !- Name
    30.,                     !- North Axis
    City,                    !- Terrain
    0.04,                    !- Loads Convergence Tolerance Value
    0.4,                     !- Temperature Convergence Tolerance Value
    FullExterior,            !- Solar Distribution
    25,                      !- Maximum Number of Warmup Days
    6;                       !- Minimum Number of Warmup Days

  SurfaceConvectionAlgorithm:Inside,
    Simple;                  !- Algorithm

  SurfaceConvectionAlgorithm:Outside,
    SimpleCombined;          !- Algorithm

  HeatBalanceAlgorithm,
    ConductionTransferFunction;  !- Algorithm

  Timestep,
    4;                       !- Number of Timesteps per Hour

  Site:Location,
    CHICAGO_IL_USA TMY2-94846,  !- Name
    41.78,                   !- Latitude
    -87.75,                  !- Longitude
    -6.00,                   !- Time Zone
    190.00;                  !- Elevation

! CHICAGO_IL_USA Annual Heating 99% Design Conditions DB, MaxDB= -17.3°C
  SizingPeriod:DesignDay,
    CHICAGO_IL_USA Annual Heating 99% Design Conditions DB,  !- Name
    1,                       !- Month
    21,                      !- Day of Month
    WinterDesignDay,         !- Day Type
    -17.3,                   !- Maximum Dry-Bulb Temperature
    0.0,                     !- Daily Dry-Bulb Temperature Range
    ,                        !- Dry-Bulb Temperature Range Modifier Type
    ,                        !- Dry-Bulb Temperature Range Modifier Day Schedule Name
    Wetbulb,                 !- Humidity Condition Type
    -17.3,                   !- Wetbulb or DewPoint at Maximum Dry-Bulb
    ,                        !- Humidity Condition Day Schedule Name
    ,                        !- Humidity Ratio at Maximum Dry-Bulb
    ,                        !- Enthalpy at Maximum Dry-Bulb  !will require units transition.
    ,                        !- Daily Wet-Bulb Temperature Range
    99063.,                  !- Barometric Pressure
    4.9,                     !- Wind Speed
    270,                     !- Wind Direction
    No,                      !- Rain Indicator
    No,                      !- Snow Indicator
    No,                      !- Daylight Saving Time Indicator
    ASHRAEClearSky,          !- Solar Model Indicator
    ,                        !- Beam Solar Day Schedule Name
    ,                        !- Diffuse Solar Day Schedule Name
    ,                        !- ASHRAE Clear Sky Optical Depth for Beam Irradiance (taub)
    ,                        !- ASHRAE Clear Sky Optical Depth for Diffuse Irradiance (taud)
    0.0;                     !- Sky Clearness

! CHICAGO_IL_USA Annual Cooling 1% Design Conditions, MaxDB=  31.5°C MCWB=  23.0°C
  SizingPeriod:DesignDay,
    CHICAGO_IL_USA Annual Cooling 1% Design Conditions DB/MCWB,  !- Name
    7,                       !- Month
    21,                      !- Day of Month
    SummerDesignDay,         !- Day Type
    31.5,                    !- Maximum Dry-Bulb Temperature
    10.7,                    !- Daily Dry-Bulb Temperature Range
    ,                        !- Dry-Bulb Temperature Range Modifier Type
    ,                        !- Dry-Bulb Temperature Range Modifier Day Schedule Name
    Wetbulb,                 !- Humidity Condition Type
    23.0,                    !- Wetbulb or DewPoint at Maximum Dry-Bulb
    ,                        !- Humidity Condition Day Schedule Name
    ,                        !- Humidity Ratio at Maximum Dry-Bulb
    ,                        !- Enthalpy at Maximum Dry-Bulb  !will require units transition.
    ,                        !- Daily Wet-Bulb Temperature Range
    99063.,                  !- Barometric Pressure
    5.3,                     !- Wind Speed
    230,                     !- Wind Direction
    No,                      !- Rain Indicator
    No,                      !- Snow Indicator
    No,                      !- Daylight Saving Time Indicator
    ASHRAEClearSky,          !- Solar Model Indicator
    ,                        !- Beam Solar Day Schedule Name
    ,                        !- Diffuse Solar Day Schedule Name
    ,                        !- ASHRAE Clear Sky Optical Depth for Beam Irradiance (taub)
    ,                        !- ASHRAE Clear Sky Optical Depth for Diffuse Irradiance (taud)
    1.0;                     !- Sky Clearness

  RunPeriod,
    123,                     !- Name
    1,                       !- Begin Month
    14,                      !- Begin Day of Month
    1,                       !- End Month
    14,                      !- End Day of Month
    Friday,                  !- Day of Week for Start Day
    Yes,                     !- Use Weather File Holidays and Special Days
    Yes,                     !- Use Weather File Daylight Saving Period
    No,                      !- Apply Weekend Holiday Rule
    Yes,                     !- Use Weather File Rain Indicators
    Yes;                     !- Use Weather File Snow Indicators

  RunPeriod,
    ,                        !- Name
    7,                       !- Begin Month
    7,                       !- Begin Day of Month
    7,                       !- End Month
    7,                       !- End Day of Month
    Friday,                  !- Day of Week for Start Day
    Yes,                     !- Use Weather File Holidays and Special Days
    Yes,                     !- Use Weather File Daylight Saving Period
    No,                      !- Apply Weekend Holiday Rule
    Yes,                     !- Use Weather File Rain Indicators
    Yes;                     !- Use Weather File Snow Indicators

  Site:GroundTemperature:BuildingSurface,
    20.03,                   !- January Ground Temperature
    20.03,                   !- February Ground Temperature
    20.13,                   !- March Ground Temperature
    20.30,                   !- April Ground Temperature
    20.43,                   !- May Ground Temperature
    20.52,                   !- June Ground Temperature
    20.62,                   !- July Ground Temperature
    20.77,                   !- August Ground Temperature
    20.78,                   !- September Ground Temperature
    20.55,                   !- October Ground Temperature
    20.44,                   !- November Ground Temperature
    20.20;                   !- December Ground Temperature

  ScheduleTypeLimits,
    Any Number;              !- Name

  ScheduleTypeLimits,
    Fraction,                !- Name
    0.0,                     !- Lower Limit Value
    1.0,                     !- Upper Limit Value
    CONTINUOUS;              !- Numeric Type

  ScheduleTypeLimits,
    Temperature,             !- Name
    -60,                     !- Lower Limit Value
    200,                     !- Upper Limit Value
    CONTINUOUS,              !- Numeric Type
    Temperature;             !- Unit Type

  ScheduleTypeLimits,
    Control Type,            !- Name
    0,                       !- Lower Limit Value
    4,                       !- Upper Limit Value
    DISCRETE;                !- Numeric Type

  ScheduleTypeLimits,
    On/Off,                  !- Name
    0,                       !- Lower Limit Value
    1,                       !- Upper Limit Value
    DISCRETE;                !- Numeric Type

  ScheduleTypeLimits,
    FlowRate,                !- Name
    0.0,                     !- Lower Limit Value
    10,                      !- Upper Limit Value
    CONTINUOUS;              !- Numeric Type

  Schedule:Compact,
    OCCUPY-1,                !- Name
    Fraction,                !- Schedule Type Limits Name
    Through: 12/31,          !- Field 1
    For: WeekDays SummerDesignDay CustomDay1 CustomDay2,  !- Field 2
    Until: 8:00,             !- Field 3
    0.0,                     !- Field 4
    Until: 11:00,            !- Field 5
    1.00,                    !- Field 6
    Until: 12:00,            !- Field 7
    0.80,                    !- Field 8
    Until: 13:00,            !- Field 9
    0.40,                    !- Field 10
    Until: 14:00,            !- Field 11
    0.80,                    !- Field 12
    Until: 18:00,            !- Field 13
    1.00,                    !- Field 14
    Until: 19:00,            !- Field 15
    0.50,                    !- Field 16
    Until: 21:00,            !- Field 17
    0.10,                    !- Field 18
    Until: 24:00,            !- Field 19
    0.0,                     !- Field 20
    For: Weekends WinterDesignDay Holiday,  !- Field 21
    Until: 24:00,            !- Field 22
    0.0;                     !- Field 23

  Schedule:Compact,
    LIGHTS-1,                !- Name
    Fraction,                !- Schedule Type Limits Name
    Through: 12/31,          !- Field 1
    For: WeekDays SummerDesignDay CustomDay1 CustomDay2,  !- Field 2
    Until: 8:00,             !- Field 3
    0.05,                    !- Field 4
    Until: 9:00,             !- Field 5
    0.9,                     !- Field 6
    Until: 10:00,            !- Field 7
    0.95,                    !- Field 8
    Until: 11:00,            !- Field 9
    1.00,                    !- Field 10
    Until: 12:00,            !- Field 11
    0.95,                    !- Field 12
    Until: 13:00,            !- Field 13
    0.8,                     !- Field 14
    Until: 14:00,            !- Field 15
    0.9,                     !- Field 16
    Until: 18:00,            !- Field 17
    1.00,                    !- Field 18
    Until: 19:00,            !- Field 19
    0.60,                    !- Field 20
    Until: 21:00,            !- Field 21
    0.20,                    !- Field 22
    Until: 24:00,            !- Field 23
    0.05,                    !- Field 24
    For: Weekends WinterDesignDay Holiday,  !- Field 25
    Until: 24:00,            !- Field 26
    0.05;                    !- Field 27

  Schedule:Compact,
    EQUIP-1,                 !- Name
    Fraction,                !- Schedule Type Limits Name
    Through: 12/31,          !- Field 1
    For: WeekDays SummerDesignDay CustomDay1 CustomDay2,  !- Field 2
    Until: 8:00,             !- Field 3
    0.02,                    !- Field 4
    Until: 9:00,             !- Field 5
    0.4,                     !- Field 6
    Until: 14:00,            !- Field 7
    0.9,                     !- Field 8
    Until: 15:00,            !- Field 9
    0.8,                     !- Field 10
    Until: 16:00,            !- Field 11
    0.7,                     !- Field 12
    Until: 18:00,            !- Field 13
    0.5,                     !- Field 14
    Until: 20:00,            !- Field 15
    0.3,                     !- Field 16
    Until: 24:00,            !- Field 17
    0.02,                    !- Field 18
    For: Weekends WinterDesignDay Holiday,  !- Field 19
    Until: 24:00,            !- Field 20
    0.2;                     !- Field 21

  Schedule:Compact,
    INFIL-SCH,               !- Name
    Fraction,                !- Schedule Type Limits Name
    Through: 3/31,           !- Field 1
    For: AllDays,            !- Field 2
    Until: 24:00,            !- Field 3
    1.0,                     !- Field 4
    Through: 10/31,          !- Field 5
    For: AllDays,            !- Field 6
    Until: 24:00,            !- Field 7
    0.0,                     !- Field 8
    Through: 12/31,          !- Field 9
    For: AllDays,            !- Field 10
    Until: 24:00,            !- Field 11
    1.0;                     !- Field 12

  Schedule:Compact,
    ActSchd,                 !- Name
    Any Number,              !- Schedule Type Limits Name
    Through: 12/31,          !- Field 1
    For: AllDays,            !- Field 2
    Until: 24:00,            !- Field 3
    117.239997864;           !- Field 4

  Schedule:Compact,
    ShadeTransSch,           !- Name
    Fraction,                !- Schedule Type Limits Name
    Through: 12/31,          !- Field 1
    For: AllDays,            !- Field 2
    Until: 24:00,            !- Field 3
    0.0;                     !- Field 4

  Schedule:Compact,
    Htg-SetP-Sch,            !- Name
    Temperature,             !- Schedule Type Limits Name
    Through: 12/31,          !- Field 1
    For: SummerDesignDay,    !- Field 2
    Until: 24:00,            !- Field 3
    12.8,                    !- Field 4
    For: WinterDesignDay,    !- Field 5
    Until: 24:00,            !- Field 6
    21.1,                    !- Field 7
    For: WeekDays,           !- Field 8
    Until: 7:00,             !- Field 9
    12.8,                    !- Field 10
    Until: 18:00,            !- Field 11
    21.1,                    !- Field 12
    Until: 24:00,            !- Field 13
    12.8,                    !- Field 14
    For: WeekEnds Holiday,   !- Field 15
    Until: 7:00,             !- Field 16
    12.8,                    !- Field 17
    Until: 13:00,            !- Field 18
    21.1,                    !- Field 19
    Until: 24:00,            !- Field 20
    12.8,                    !- Field 21
    For: AllOtherDays,       !- Field 22
    Until: 7:00,             !- Field 23
    12.8,                    !- Field 24
    Until: 18:00,            !- Field 25
    21.1,                    !- Field 26
    Until: 24:00,            !- Field 27
    12.8;                    !- Field 28

  Schedule:Compact,
    PlenumHtg-SetP-Sch,      !- Name
    Temperature,             !- Schedule Type Limits Name
    Through: 12/31,          !- Field 1
    For: AllDays,            !- Field 2
    Until: 24:00,            !- Field 3
    12.8;                    !- Field 4

  Schedule:Compact,
    Clg-SetP-Sch,            !- Name
    Temperature,             !- Schedule Type Limits Name
    Through: 12/31,          !- Field 1
    For: SummerDesignDay,    !- Field 2
    Until: 24:00,            !- Field 3
    23.9,                    !- Field 4
    For: WinterDesignDay,    !- Field 5
    Until: 24:00,            !- Field 6
    40.0,                    !- Field 7
    For: WeekDays,           !- Field 8
    Until: 7:00,             !- Field 9
    40.0,                    !- Field 10
    Until: 18:00,            !- Field 11
    23.9,                    !- Field 12
    Until: 24:00,            !- Field 13
    40.0,                    !- Field 14
    For: WeekEnds Holiday,   !- Field 15
    Until: 7:00,             !- Field 16
    40.0,                    !- Field 17
    Until: 13:00,            !- Field 18
    23.9,                    !- Field 19
    Until: 24:00,            !- Field 20
    32.2,                    !- Field 21
    For: AllOtherDays,       !- Field 22
    Until: 7:00,             !- Field 23
    40.0,                    !- Field 24
    Until: 18:00,            !- Field 25
    23.9,                    !- Field 26
    Until: 24:00,            !- Field 27
    40.0;                    !- Field 28

  Schedule:Compact,
    PlenumClg-SetP-Sch,      !- Name
    Temperature,             !- Schedule Type Limits Name
    Through: 12/31,          !- Field 1
    For: AllDays,            !- Field 2
    Until: 24:00,            !- Field 3
    40.0;                    !- Field 4

  Schedule:Compact,
    Zone Control Type Sched,  !- Name
    Control Type,            !- Schedule Type Limits Name
    Through: 12/31,          !- Field 1
    For: SummerDesignDay,    !- Field 2
    Until: 24:00,            !- Field 3
    2,                       !- Field 4
    For: WinterDesignDay,    !- Field 5
    Until: 24:00,            !- Field 6
    1,                       !- Field 7
    For: AllOtherDays,       !- Field 8
    Until: 24:00,            !- Field 9
    4;                       !- Field 10

  Schedule:Compact,
    Min OA Sched,            !- Name
    Fraction,                !- Schedule Type Limits Name
    Through: 12/31,          !- Field 1
    For: Weekdays,           !- Field 2
    Until: 6:00,             !- Field 3
    0.02,                    !- Field 4
    Until: 18:00,            !- Field 5
    1.0,                     !- Field 6
    Until: 24:00,            !- Field 7
    0.02,                    !- Field 8
    For: AllOtherDays,       !- Field 9
    Until: 24:00,            !- Field 10
    0.02;                    !- Field 11

  Schedule:Compact,
    FanAvailSched,           !- Name
    Fraction,                !- Schedule Type Limits Name
    Through: 3/31,           !- Field 1
    For: AllDays,            !- Field 2
    Until: 24:00,            !- Field 3
    1.0,                     !- Field 4
    Through: 9/30,           !- Field 5
    For: WeekDays,           !- Field 6
    Until: 7:00,             !- Field 7
    0.0,                     !- Field 8
    Until: 17:00,            !- Field 9
    1.0,                     !- Field 10
    Until: 24:00,            !- Field 11
    0.0,                     !- Field 12
    For: SummerDesignDay WinterDesignDay,  !- Field 13
    Until: 24:00,            !- Field 14
    1.0,                     !- Field 15
    For: AllOtherDays,       !- Field 16
    Until: 24:00,            !- Field 17
    0.0,                     !- Field 18
    Through: 12/31,          !- Field 19
    For: AllDays,            !- Field 20
    Until: 24:00,            !- Field 21
    1.0;                     !- Field 22

  Schedule:Compact,
    CoolingCoilAvailSched,   !- Name
    Fraction,                !- Schedule Type Limits Name
    Through: 3/31,           !- Field 1
    For: AllDays,            !- Field 2
    Until: 24:00,            !- Field 3
    0.0,                     !- Field 4
    Through: 9/30,           !- Field 5
    For: WeekDays,           !- Field 6
    Until: 7:00,             !- Field 7
    0.0,                     !- Field 8
    Until: 17:00,            !- Field 9
    1.0,                     !- Field 10
    Until: 24:00,            !- Field 11
    0.0,                     !- Field 12
    For: SummerDesignDay WinterDesignDay,  !- Field 13
    Until: 24:00,            !- Field 14
    1.0,                     !- Field 15
    For: AllOtherDays,       !- Field 16
    Until: 24:00,            !- Field 17
    0.0,                     !- Field 18
    Through: 12/31,          !- Field 19
    For: AllDays,            !- Field 20
    Until: 24:00,            !- Field 21
    0.0;                     !- Field 22

  Schedule:Compact,
    CoolingPumpAvailSched,   !- Name
    Fraction,                !- Schedule Type Limits Name
    Through: 3/31,           !- Field 1
    For: AllDays,            !- Field 2
    Until: 24:00,            !- Field 3
    0.0,                     !- Field 4
    Through: 9/30,           !- Field 5
    For: AllDays,            !- Field 6
    Until: 24:00,            !- Field 7
    1.0,                     !- Field 8
    Through: 12/31,          !- Field 9
    For: AllDays,            !- Field 10
    Until: 24:00,            !- Field 11
    0.0;                     !- Field 12

  Schedule:Compact,
    ReheatCoilAvailSched,    !- Name
    Fraction,                !- Schedule Type Limits Name
    Through: 3/31,           !- Field 1
    For: AllDays,            !- Field 2
    Until: 24:00,            !- Field 3
    1.0,                     !- Field 4
    Through: 9/30,           !- Field 5
    For: WeekDays,           !- Field 6
    Until: 7:00,             !- Field 7
    0.0,                     !- Field 8
    Until: 17:00,            !- Field 9
    1.0,                     !- Field 10
    Until: 24:00,            !- Field 11
    0.0,                     !- Field 12
    For: SummerDesignDay WinterDesignDay,  !- Field 13
    Until: 24:00,            !- Field 14
    1.0,                     !- Field 15
    For: AllOtherDays,       !- Field 16
    Until: 24:00,            !- Field 17
    0.0,                     !- Field 18
    Through: 12/31,          !- Field 19
    For: AllDays,            !- Field 20
    Until: 24:00,            !- Field 21
    1.0;                     !- Field 22

  Schedule:Compact,
    CW Loop Temp Schedule,   !- Name
    Temperature,             !- Schedule Type Limits Name
    Through: 12/31,          !- Field 1
    For: AllDays,            !- Field 2
    Until: 24:00,            !- Field 3
    7.22;                    !- Field 4

  Schedule:Compact,
    PlantOnSched,            !- Name
    Fraction,                !- Schedule Type Limits Name
    Through: 12/31,          !- Field 1
    For: AllDays,            !- Field 2
    Until: 24:00,            !- Field 3
    1.0;                     !- Field 4

  Schedule:Compact,
    Seasonal Reset Supply Air Temp Sch,  !- Name
    Temperature,             !- Schedule Type Limits Name
    Through: 3/31,           !- Field 1
    For: AllDays,            !- Field 2
    Until: 24:00,            !- Field 3
    16.0,                    !- Field 4
    Through: 9/30,           !- Field 5
    For: AllDays,            !- Field 6
    Until: 24:00,            !- Field 7
    13.0,                    !- Field 8
    Through: 12/31,          !- Field 9
    For: AllDays,            !- Field 10
    Until: 24:00,            !- Field 11
    16.0;                    !- Field 12

  Material,
    WD10,                    !- Name
    MediumSmooth,            !- Roughness
    0.667,                   !- Thickness
    0.115,                   !- Conductivity
    513,                     !- Density
    1381,                    !- Specific Heat
    0.9,                     !- Thermal Absorptance
    0.78,                    !- Solar Absorptance
    0.78;                    !- Visible Absorptance

  Material,
    RG01,                    !- Name
    Rough,                   !- Roughness
    1.2700000E-02,           !- Thickness
    1.442000,                !- Conductivity
    881.0000,                !- Density
    1674.000,                !- Specific Heat
    0.9000000,               !- Thermal Absorptance
    0.6500000,               !- Solar Absorptance
    0.6500000;               !- Visible Absorptance

  Material,
    BR01,                    !- Name
    VeryRough,               !- Roughness
    9.4999997E-03,           !- Thickness
    0.1620000,               !- Conductivity
    1121.000,                !- Density
    1464.000,                !- Specific Heat
    0.9000000,               !- Thermal Absorptance
    0.7000000,               !- Solar Absorptance
    0.7000000;               !- Visible Absorptance

  Material,
    IN46,                    !- Name
    VeryRough,               !- Roughness
    7.6200001E-02,           !- Thickness
    2.3000000E-02,           !- Conductivity
    24.00000,                !- Density
    1590.000,                !- Specific Heat
    0.9000000,               !- Thermal Absorptance
    0.5000000,               !- Solar Absorptance
    0.5000000;               !- Visible Absorptance

  Material,
    WD01,                    !- Name
    MediumSmooth,            !- Roughness
    1.9099999E-02,           !- Thickness
    0.1150000,               !- Conductivity
    513.0000,                !- Density
    1381.000,                !- Specific Heat
    0.9000000,               !- Thermal Absorptance
    0.7800000,               !- Solar Absorptance
    0.7800000;               !- Visible Absorptance

  Material,
    PW03,                    !- Name
    MediumSmooth,            !- Roughness
    1.2700000E-02,           !- Thickness
    0.1150000,               !- Conductivity
    545.0000,                !- Density
    1213.000,                !- Specific Heat
    0.9000000,               !- Thermal Absorptance
    0.7800000,               !- Solar Absorptance
    0.7800000;               !- Visible Absorptance

  Material,
    IN02,                    !- Name
    Rough,                   !- Roughness
    9.0099998E-02,           !- Thickness
    4.3000001E-02,           !- Conductivity
    10.00000,                !- Density
    837.0000,                !- Specific Heat
    0.9000000,               !- Thermal Absorptance
    0.7500000,               !- Solar Absorptance
    0.7500000;               !- Visible Absorptance

  Material,
    GP01,                    !- Name
    MediumSmooth,            !- Roughness
    1.2700000E-02,           !- Thickness
    0.1600000,               !- Conductivity
    801.0000,                !- Density
    837.0000,                !- Specific Heat
    0.9000000,               !- Thermal Absorptance
    0.7500000,               !- Solar Absorptance